1657876007.944443s 1 https://api.dandiarchive.org/api/zarr/588ecbea-19cd-4ac5-8ac9-b356c1b70cdb.zarr/0/0/0/9/14/83
1657876007.93978s 1 https://dandiarchive.s3.amazonaws.com/zarr/588ecbea-19cd-4ac5-8ac9-b356c1b70cdb/0/0/0/9/14/83?versionId=MT3DECk_A.XUjtWc1WW_05UwcnV8L3Kf
